<?xml version="1.0" encoding="UTF-8"?>

<!-- generated on 11/13/20 16:50:24 by Eclipse SUMO netedit Version 1.7.0
<configuration xmlns:xsi="http://www.w3.org/2001/XMLSchema-instance" xsi:noNamespaceSchemaLocation="http://sumo.dlr.de/xsd/netconvertConfiguration.xsd">

    <input>
        <sumo-net-file value="E:\sumo\1.net.xml"/>
    </input>

    <output>
        <output-file value="E:\sumo\1.net.xml"/>
    </output>

    <processing>
        <geometry.min-radius.fix.railways value="false"/>
        <geometry.max-grade.fix value="false"/>
        <offset.disable-normalization value="true"/>
        <lefthand value="false"/>
    </processing>

    <junctions>
        <no-internal-links value="true"/>
        <no-turnarounds value="true"/>
        <junctions.corner-detail value="5"/>
        <junctions.limit-turn-speed value="5.5"/>
        <rectangular-lane-cut value="false"/>
    </junctions>

    <pedestrian>
        <walkingareas value="false"/>
    </pedestrian>

    <report>
        <aggregate-warnings value="5"/>
    </report>

</configuration>
-->

<net version="1.6" junctionCornerDetail="5" limitTurnSpeed="5.50" xmlns:xsi="http://www.w3.org/2001/XMLSchema-instance" xsi:noNamespaceSchemaLocation="http://sumo.dlr.de/xsd/net_file.xsd">

    <location netOffset="0.00,0.00" convBoundary="-250.00,-100.00,250.00,0.00" origBoundary="-10000000000.00,-10000000000.00,10000000000.00,10000000000.00" projParameter="!"/>

    <edge id="gneE0" from="gneJ0" to="gneJ1" priority="-1" length="250.00">
        <lane id="gneE0_0" index="0" speed="25.00" length="250.00" shape="-250.00,-1.60 -10.40,-1.60"/>
    </edge>
    <edge id="gneE1" from="gneJ2" to="gneJ1" priority="-1" length="250.00">
        <lane id="gneE1_0" index="0" speed="25.00" length="250.00" shape="-199.28,-101.43 -9.94,-6.76"/>
    </edge>
    <edge id="gneE2" from="gneJ1" to="gneJ6" priority="-1" length="200.00">
        <lane id="gneE2_0" index="0" speed="25.00" length="200.00" acceleration="1" shape="-1.64,-4.80 196.00,-4.80"/>
        <lane id="gneE2_1" index="1" speed="25.00" length="200.00" shape="-1.64,-1.60 196.00,-1.60"/>
    </edge>
    <edge id="gneE2.32" from="gneJ6" to="gneJ3" priority="-1" length="50.00">
        <lane id="gneE2.32_0" index="0" speed="25.00" length="50.00" shape="204.00,-1.60 250.00,-1.60"/>
    </edge>

    <junction id="gneJ0" type="dead_end" x="-250.00" y="0.00" incLanes="" intLanes="" shape="-250.00,0.00 -250.00,-3.20"/>
    <junction id="gneJ1" type="priority" x="0.00" y="0.00" incLanes="gneE1_0 gneE0_0" intLanes="" shape="-1.64,0.00 -1.64,-6.40 -4.57,-6.48 -5.59,-6.64 -6.58,-6.95 -7.72,-7.45 -9.22,-8.19 -10.65,-5.33 -10.40,-3.20 -10.40,0.00">
        <request index="0" response="00" foes="00"/>
        <request index="1" response="00" foes="00"/>
    </junction>
    <junction id="gneJ2" type="dead_end" x="-200.00" y="-100.00" incLanes="" intLanes="" shape="-200.00,-100.00 -198.57,-102.86" rightOfWay="edgePriority" fringe="outer"/>
    <junction id="gneJ3" type="dead_end" x="250.00" y="0.00" incLanes="gneE2.32_0" intLanes="" shape="100.00,-6.40 100.00,0.00" customShape="1"/>
    <junction id="gneJ6" type="priority" x="200.00" y="0.00" incLanes="gneE2_0 gneE2_1" intLanes="" shape="204.00,0.00 204.00,-3.20 200.97,-4.03 199.03,-5.57 197.79,-6.16 196.00,-6.40 196.00,0.00">
        <request index="0" response="0" foes="0"/>
    </junction>

    <connection from="gneE0" to="gneE2" fromLane="0" toLane="1" dir="s" state="M"/>
    <connection from="gneE1" to="gneE2" fromLane="0" toLane="0" dir="s" state="M"/>
    <connection from="gneE2" to="gneE2.32" fromLane="1" toLane="0" keepClear="0" dir="s" state="M"/>

</net>
